L24/1726537/_ATERRAMENTO.dss
! Aterramento do neutro (no 4) dos secundarios de BT
! Reactor de 0.5 ohm entre o no 4 e a terra (no 0).
New Reactor.NEUTRO_node_1034437499 phases=1 bus1=node_1034437499.4 bus2=node_1034437499.0 R=0.5 X=0
New Reactor.NEUTRO_node_1035223292 phases=1 bus1=node_1035223292.4 bus2=node_1035223292.0 R=0.5 X=0
New Reactor.NEUTRO_node_1035258115 phases=1 bus1=node_1035258115.4 bus2=node_1035258115.0 R=0.5 X=0
New Reactor.NEUTRO_node_1039006306 phases=1 bus1=node_1039006306.4 bus2=node_1039006306.0 R=0.5 X=0
New Reactor.NEUTRO_node_1041986387 phases=1 bus1=node_1041986387.4 bus2=node_1041986387.0 R=0.5 X=0
New Reactor.NEUTRO_node_1049724175 phases=1 bus1=node_1049724175.4 bus2=node_1049724175.0 R=0.5 X=0
New Reactor.NEUTRO_node_1060708198 phases=1 bus1=node_1060708198.4 bus2=node_1060708198.0 R=0.5 X=0
New Reactor.NEUTRO_node_1060794060 phases=1 bus1=node_1060794060.4 bus2=node_1060794060.0 R=0.5 X=0
New Reactor.NEUTRO_node_1063319000 phases=1 bus1=node_1063319000.4 bus2=node_1063319000.0 R=0.5 X=0
New Reactor.NEUTRO_node_1075715888 phases=1 bus1=node_1075715888.4 bus2=node_1075715888.0 R=0.5 X=0
New Reactor.NEUTRO_node_1109178873 phases=1 bus1=node_1109178873.4 bus2=node_1109178873.0 R=0.5 X=0
New Reactor.NEUTRO_node_1117157136 phases=1 bus1=node_1117157136.4 bus2=node_1117157136.0 R=0.5 X=0
New Reactor.NEUTRO_node_1118213451 phases=1 bus1=node_1118213451.4 bus2=node_1118213451.0 R=0.5 X=0
New Reactor.NEUTRO_node_1138919323 phases=1 bus1=node_1138919323.4 bus2=node_1138919323.0 R=0.5 X=0
New Reactor.NEUTRO_node_1139631926 phases=1 bus1=node_1139631926.4 bus2=node_1139631926.0 R=0.5 X=0
New Reactor.NEUTRO_node_1139687797 phases=1 bus1=node_1139687797.4 bus2=node_1139687797.0 R=0.5 X=0
New Reactor.NEUTRO_node_1144810563 phases=1 bus1=node_1144810563.4 bus2=node_1144810563.0 R=0.5 X=0
New Reactor.NEUTRO_node_1151419261 phases=1 bus1=node_1151419261.4 bus2=node_1151419261.0 R=0.5 X=0
New Reactor.NEUTRO_node_1152917681 phases=1 bus1=node_1152917681.4 bus2=node_1152917681.0 R=0.5 X=0
New Reactor.NEUTRO_node_1156786609 phases=1 bus1=node_1156786609.4 bus2=node_1156786609.0 R=0.5 X=0
New Reactor.NEUTRO_node_1157099977 phases=1 bus1=node_1157099977.4 bus2=node_1157099977.0 R=0.5 X=0
New Reactor.NEUTRO_node_1157134499 phases=1 bus1=node_1157134499.4 bus2=node_1157134499.0 R=0.5 X=0
New Reactor.NEUTRO_node_1159122362 phases=1 bus1=node_1159122362.4 bus2=node_1159122362.0 R=0.5 X=0
New Reactor.NEUTRO_node_1164331251 phases=1 bus1=node_1164331251.4 bus2=node_1164331251.0 R=0.5 X=0
New Reactor.NEUTRO_node_1166825920 phases=1 bus1=node_1166825920.4 bus2=node_1166825920.0 R=0.5 X=0
New Reactor.NEUTRO_node_1167238514 phases=1 bus1=node_1167238514.4 bus2=node_1167238514.0 R=0.5 X=0
New Reactor.NEUTRO_node_1167238648 phases=1 bus1=node_1167238648.4 bus2=node_1167238648.0 R=0.5 X=0
New Reactor.NEUTRO_node_1167238780 phases=1 bus1=node_1167238780.4 bus2=node_1167238780.0 R=0.5 X=0
New Reactor.NEUTRO_node_1167238948 phases=1 bus1=node_1167238948.4 bus2=node_1167238948.0 R=0.5 X=0
New Reactor.NEUTRO_node_1167239079 phases=1 bus1=node_1167239079.4 bus2=node_1167239079.0 R=0.5 X=0
New Reactor.NEUTRO_node_1169762953 phases=1 bus1=node_1169762953.4 bus2=node_1169762953.0 R=0.5 X=0
New Reactor.NEUTRO_node_1180257446 phases=1 bus1=node_1180257446.4 bus2=node_1180257446.0 R=0.5 X=0
New Reactor.NEUTRO_node_1180820019 phases=1 bus1=node_1180820019.4 bus2=node_1180820019.0 R=0.5 X=0
New Reactor.NEUTRO_node_1185066809 phases=1 bus1=node_1185066809.4 bus2=node_1185066809.0 R=0.5 X=0
New Reactor.NEUTRO_node_1185977256 phases=1 bus1=node_1185977256.4 bus2=node_1185977256.0 R=0.5 X=0
New Reactor.NEUTRO_node_1197875930 phases=1 bus1=node_1197875930.4 bus2=node_1197875930.0 R=0.5 X=0
New Reactor.NEUTRO_node_1200757129 phases=1 bus1=node_1200757129.4 bus2=node_1200757129.0 R=0.5 X=0
New Reactor.NEUTRO_node_1208722815 phases=1 bus1=node_1208722815.4 bus2=node_1208722815.0 R=0.5 X=0
New Reactor.NEUTRO_node_1212859354 phases=1 bus1=node_1212859354.4 bus2=node_1212859354.0 R=0.5 X=0
New Reactor.NEUTRO_node_1224717505 phases=1 bus1=node_1224717505.4 bus2=node_1224717505.0 R=0.5 X=0
New Reactor.NEUTRO_node_1225031051 phases=1 bus1=node_1225031051.4 bus2=node_1225031051.0 R=0.5 X=0
New Reactor.NEUTRO_node_1228132694 phases=1 bus1=node_1228132694.4 bus2=node_1228132694.0 R=0.5 X=0
New Reactor.NEUTRO_node_1228132980 phases=1 bus1=node_1228132980.4 bus2=node_1228132980.0 R=0.5 X=0
New Reactor.NEUTRO_node_1228133382 phases=1 bus1=node_1228133382.4 bus2=node_1228133382.0 R=0.5 X=0
New Reactor.NEUTRO_node_1228133464 phases=1 bus1=node_1228133464.4 bus2=node_1228133464.0 R=0.5 X=0
New Reactor.NEUTRO_node_1228133503 phases=1 bus1=node_1228133503.4 bus2=node_1228133503.0 R=0.5 X=0
New Reactor.NEUTRO_node_1228133819 phases=1 bus1=node_1228133819.4 bus2=node_1228133819.0 R=0.5 X=0
New Reactor.NEUTRO_node_1228432741 phases=1 bus1=node_1228432741.4 bus2=node_1228432741.0 R=0.5 X=0
New Reactor.NEUTRO_node_1232262128 phases=1 bus1=node_1232262128.4 bus2=node_1232262128.0 R=0.5 X=0
New Reactor.NEUTRO_node_1232262224 phases=1 bus1=node_1232262224.4 bus2=node_1232262224.0 R=0.5 X=0
New Reactor.NEUTRO_node_1234048982 phases=1 bus1=node_1234048982.4 bus2=node_1234048982.0 R=0.5 X=0
New Reactor.NEUTRO_node_1250799906 phases=1 bus1=node_1250799906.4 bus2=node_1250799906.0 R=0.5 X=0
New Reactor.NEUTRO_node_1250800168 phases=1 bus1=node_1250800168.4 bus2=node_1250800168.0 R=0.5 X=0
New Reactor.NEUTRO_node_1251757660 phases=1 bus1=node_1251757660.4 bus2=node_1251757660.0 R=0.5 X=0
New Reactor.NEUTRO_node_1251821477 phases=1 bus1=node_1251821477.4 bus2=node_1251821477.0 R=0.5 X=0
New Reactor.NEUTRO_node_1252267970 phases=1 bus1=node_1252267970.4 bus2=node_1252267970.0 R=0.5 X=0
New Reactor.NEUTRO_node_1266601746 phases=1 bus1=node_1266601746.4 bus2=node_1266601746.0 R=0.5 X=0
New Reactor.NEUTRO_node_1272694480 phases=1 bus1=node_1272694480.4 bus2=node_1272694480.0 R=0.5 X=0
New Reactor.NEUTRO_node_1272694537 phases=1 bus1=node_1272694537.4 bus2=node_1272694537.0 R=0.5 X=0
New Reactor.NEUTRO_node_1272695704 phases=1 bus1=node_1272695704.4 bus2=node_1272695704.0 R=0.5 X=0
New Reactor.NEUTRO_node_1279135560 phases=1 bus1=node_1279135560.4 bus2=node_1279135560.0 R=0.5 X=0
New Reactor.NEUTRO_node_1302567880 phases=1 bus1=node_1302567880.4 bus2=node_1302567880.0 R=0.5 X=0
New Reactor.NEUTRO_node_1304783631 phases=1 bus1=node_1304783631.4 bus2=node_1304783631.0 R=0.5 X=0
New Reactor.NEUTRO_node_1308626585 phases=1 bus1=node_1308626585.4 bus2=node_1308626585.0 R=0.5 X=0
New Reactor.NEUTRO_node_1310580435 phases=1 bus1=node_1310580435.4 bus2=node_1310580435.0 R=0.5 X=0
New Reactor.NEUTRO_node_1330332752 phases=1 bus1=node_1330332752.4 bus2=node_1330332752.0 R=0.5 X=0
New Reactor.NEUTRO_node_1335687835 phases=1 bus1=node_1335687835.4 bus2=node_1335687835.0 R=0.5 X=0
New Reactor.NEUTRO_node_1335688588 phases=1 bus1=node_1335688588.4 bus2=node_1335688588.0 R=0.5 X=0
New Reactor.NEUTRO_node_1335689521 phases=1 bus1=node_1335689521.4 bus2=node_1335689521.0 R=0.5 X=0
New Reactor.NEUTRO_node_1340595403 phases=1 bus1=node_1340595403.4 bus2=node_1340595403.0 R=0.5 X=0
New Reactor.NEUTRO_node_1342639821 phases=1 bus1=node_1342639821.4 bus2=node_1342639821.0 R=0.5 X=0
New Reactor.NEUTRO_node_1342640652 phases=1 bus1=node_1342640652.4 bus2=node_1342640652.0 R=0.5 X=0
New Reactor.NEUTRO_node_1347165461 phases=1 bus1=node_1347165461.4 bus2=node_1347165461.0 R=0.5 X=0
New Reactor.NEUTRO_node_1352408386 phases=1 bus1=node_1352408386.4 bus2=node_1352408386.0 R=0.5 X=0
New Reactor.NEUTRO_node_1365410450 phases=1 bus1=node_1365410450.4 bus2=node_1365410450.0 R=0.5 X=0
New Reactor.NEUTRO_node_1379876973 phases=1 bus1=node_1379876973.4 bus2=node_1379876973.0 R=0.5 X=0
New Reactor.NEUTRO_node_1381517410 phases=1 bus1=node_1381517410.4 bus2=node_1381517410.0 R=0.5 X=0
New Reactor.NEUTRO_node_1383591594 phases=1 bus1=node_1383591594.4 bus2=node_1383591594.0 R=0.5 X=0
New Reactor.NEUTRO_node_1384875522 phases=1 bus1=node_1384875522.4 bus2=node_1384875522.0 R=0.5 X=0
New Reactor.NEUTRO_node_1391882967 phases=1 bus1=node_1391882967.4 bus2=node_1391882967.0 R=0.5 X=0
New Reactor.NEUTRO_node_1398208737 phases=1 bus1=node_1398208737.4 bus2=node_1398208737.0 R=0.5 X=0
New Reactor.NEUTRO_node_1408140230 phases=1 bus1=node_1408140230.4 bus2=node_1408140230.0 R=0.5 X=0
New Reactor.NEUTRO_node_1414486737 phases=1 bus1=node_1414486737.4 bus2=node_1414486737.0 R=0.5 X=0
New Reactor.NEUTRO_node_1422937386 phases=1 bus1=node_1422937386.4 bus2=node_1422937386.0 R=0.5 X=0
New Reactor.NEUTRO_node_1422971531 phases=1 bus1=node_1422971531.4 bus2=node_1422971531.0 R=0.5 X=0
New Reactor.NEUTRO_node_1431739849 phases=1 bus1=node_1431739849.4 bus2=node_1431739849.0 R=0.5 X=0
New Reactor.NEUTRO_node_1443879203 phases=1 bus1=node_1443879203.4 bus2=node_1443879203.0 R=0.5 X=0
New Reactor.NEUTRO_node_1471515196 phases=1 bus1=node_1471515196.4 bus2=node_1471515196.0 R=0.5 X=0
New Reactor.NEUTRO_node_1499138569 phases=1 bus1=node_1499138569.4 bus2=node_1499138569.0 R=0.5 X=0
New Reactor.NEUTRO_node_1499563729 phases=1 bus1=node_1499563729.4 bus2=node_1499563729.0 R=0.5 X=0
New Reactor.NEUTRO_node_1499877038 phases=1 bus1=node_1499877038.4 bus2=node_1499877038.0 R=0.5 X=0
New Reactor.NEUTRO_node_1503423902 phases=1 bus1=node_1503423902.4 bus2=node_1503423902.0 R=0.5 X=0
New Reactor.NEUTRO_node_1504639146 phases=1 bus1=node_1504639146.4 bus2=node_1504639146.0 R=0.5 X=0
New Reactor.NEUTRO_node_1510676478 phases=1 bus1=node_1510676478.4 bus2=node_1510676478.0 R=0.5 X=0
New Reactor.NEUTRO_node_1530892701 phases=1 bus1=node_1530892701.4 bus2=node_1530892701.0 R=0.5 X=0
New Reactor.NEUTRO_node_1531644069 phases=1 bus1=node_1531644069.4 bus2=node_1531644069.0 R=0.5 X=0
New Reactor.NEUTRO_node_1549799187 phases=1 bus1=node_1549799187.4 bus2=node_1549799187.0 R=0.5 X=0
New Reactor.NEUTRO_node_1613638749 phases=1 bus1=node_1613638749.4 bus2=node_1613638749.0 R=0.5 X=0
New Reactor.NEUTRO_node_1617880568 phases=1 bus1=node_1617880568.4 bus2=node_1617880568.0 R=0.5 X=0
New Reactor.NEUTRO_node_1627546828 phases=1 bus1=node_1627546828.4 bus2=node_1627546828.0 R=0.5 X=0
New Reactor.NEUTRO_node_1628357919 phases=1 bus1=node_1628357919.4 bus2=node_1628357919.0 R=0.5 X=0
New Reactor.NEUTRO_node_1628508252 phases=1 bus1=node_1628508252.4 bus2=node_1628508252.0 R=0.5 X=0
New Reactor.NEUTRO_node_1629994116 phases=1 bus1=node_1629994116.4 bus2=node_1629994116.0 R=0.5 X=0
New Reactor.NEUTRO_node_1630393254 phases=1 bus1=node_1630393254.4 bus2=node_1630393254.0 R=0.5 X=0
New Reactor.NEUTRO_node_1632394183 phases=1 bus1=node_1632394183.4 bus2=node_1632394183.0 R=0.5 X=0
New Reactor.NEUTRO_node_1632673738 phases=1 bus1=node_1632673738.4 bus2=node_1632673738.0 R=0.5 X=0
New Reactor.NEUTRO_node_1632797896 phases=1 bus1=node_1632797896.4 bus2=node_1632797896.0 R=0.5 X=0
New Reactor.NEUTRO_node_1635880992 phases=1 bus1=node_1635880992.4 bus2=node_1635880992.0 R=0.5 X=0
New Reactor.NEUTRO_node_1639136301 phases=1 bus1=node_1639136301.4 bus2=node_1639136301.0 R=0.5 X=0
New Reactor.NEUTRO_node_1641892638 phases=1 bus1=node_1641892638.4 bus2=node_1641892638.0 R=0.5 X=0
New Reactor.NEUTRO_node_1653954820 phases=1 bus1=node_1653954820.4 bus2=node_1653954820.0 R=0.5 X=0
New Reactor.NEUTRO_node_1656767126 phases=1 bus1=node_1656767126.4 bus2=node_1656767126.0 R=0.5 X=0
New Reactor.NEUTRO_node_1657037622 phases=1 bus1=node_1657037622.4 bus2=node_1657037622.0 R=0.5 X=0
New Reactor.NEUTRO_node_1665981901 phases=1 bus1=node_1665981901.4 bus2=node_1665981901.0 R=0.5 X=0
New Reactor.NEUTRO_node_1665983156 phases=1 bus1=node_1665983156.4 bus2=node_1665983156.0 R=0.5 X=0
New Reactor.NEUTRO_node_1672513169 phases=1 bus1=node_1672513169.4 bus2=node_1672513169.0 R=0.5 X=0
New Reactor.NEUTRO_node_1679504320 phases=1 bus1=node_1679504320.4 bus2=node_1679504320.0 R=0.5 X=0
New Reactor.NEUTRO_node_1683695079 phases=1 bus1=node_1683695079.4 bus2=node_1683695079.0 R=0.5 X=0
New Reactor.NEUTRO_node_1686348313 phases=1 bus1=node_1686348313.4 bus2=node_1686348313.0 R=0.5 X=0
New Reactor.NEUTRO_node_1689875285 phases=1 bus1=node_1689875285.4 bus2=node_1689875285.0 R=0.5 X=0
New Reactor.NEUTRO_node_1689875332 phases=1 bus1=node_1689875332.4 bus2=node_1689875332.0 R=0.5 X=0
New Reactor.NEUTRO_node_1718093816 phases=1 bus1=node_1718093816.4 bus2=node_1718093816.0 R=0.5 X=0
New Reactor.NEUTRO_node_1720726316 phases=1 bus1=node_1720726316.4 bus2=node_1720726316.0 R=0.5 X=0
New Reactor.NEUTRO_node_1721448027 phases=1 bus1=node_1721448027.4 bus2=node_1721448027.0 R=0.5 X=0
New Reactor.NEUTRO_node_1733509524 phases=1 bus1=node_1733509524.4 bus2=node_1733509524.0 R=0.5 X=0
New Reactor.NEUTRO_node_1741802675 phases=1 bus1=node_1741802675.4 bus2=node_1741802675.0 R=0.5 X=0
New Reactor.NEUTRO_node_1742814737 phases=1 bus1=node_1742814737.4 bus2=node_1742814737.0 R=0.5 X=0
New Reactor.NEUTRO_node_1743561636 phases=1 bus1=node_1743561636.4 bus2=node_1743561636.0 R=0.5 X=0
New Reactor.NEUTRO_node_1760235196 phases=1 bus1=node_1760235196.4 bus2=node_1760235196.0 R=0.5 X=0
New Reactor.NEUTRO_node_1784844125 phases=1 bus1=node_1784844125.4 bus2=node_1784844125.0 R=0.5 X=0
New Reactor.NEUTRO_node_1789382839 phases=1 bus1=node_1789382839.4 bus2=node_1789382839.0 R=0.5 X=0
New Reactor.NEUTRO_node_1796798609 phases=1 bus1=node_1796798609.4 bus2=node_1796798609.0 R=0.5 X=0
New Reactor.NEUTRO_node_1805970776 phases=1 bus1=node_1805970776.4 bus2=node_1805970776.0 R=0.5 X=0
New Reactor.NEUTRO_node_1807172872 phases=1 bus1=node_1807172872.4 bus2=node_1807172872.0 R=0.5 X=0
New Reactor.NEUTRO_node_1815722615 phases=1 bus1=node_1815722615.4 bus2=node_1815722615.0 R=0.5 X=0
New Reactor.NEUTRO_node_1871016388 phases=1 bus1=node_1871016388.4 bus2=node_1871016388.0 R=0.5 X=0
New Reactor.NEUTRO_node_1871767646 phases=1 bus1=node_1871767646.4 bus2=node_1871767646.0 R=0.5 X=0
New Reactor.NEUTRO_node_1891833636 phases=1 bus1=node_1891833636.4 bus2=node_1891833636.0 R=0.5 X=0
New Reactor.NEUTRO_node_1892108855 phases=1 bus1=node_1892108855.4 bus2=node_1892108855.0 R=0.5 X=0
New Reactor.NEUTRO_node_1902199194 phases=1 bus1=node_1902199194.4 bus2=node_1902199194.0 R=0.5 X=0
New Reactor.NEUTRO_node_1903023636 phases=1 bus1=node_1903023636.4 bus2=node_1903023636.0 R=0.5 X=0
New Reactor.NEUTRO_node_1905934980 phases=1 bus1=node_1905934980.4 bus2=node_1905934980.0 R=0.5 X=0
New Reactor.NEUTRO_node_1922763227 phases=1 bus1=node_1922763227.4 bus2=node_1922763227.0 R=0.5 X=0
New Reactor.NEUTRO_node_1928615855 phases=1 bus1=node_1928615855.4 bus2=node_1928615855.0 R=0.5 X=0
New Reactor.NEUTRO_node_1934666025 phases=1 bus1=node_1934666025.4 bus2=node_1934666025.0 R=0.5 X=0
New Reactor.NEUTRO_node_1936370905 phases=1 bus1=node_1936370905.4 bus2=node_1936370905.0 R=0.5 X=0
New Reactor.NEUTRO_node_1937882232 phases=1 bus1=node_1937882232.4 bus2=node_1937882232.0 R=0.5 X=0
New Reactor.NEUTRO_node_1941974388 phases=1 bus1=node_1941974388.4 bus2=node_1941974388.0 R=0.5 X=0
New Reactor.NEUTRO_node_1945228918 phases=1 bus1=node_1945228918.4 bus2=node_1945228918.0 R=0.5 X=0
New Reactor.NEUTRO_node_1948196482 phases=1 bus1=node_1948196482.4 bus2=node_1948196482.0 R=0.5 X=0
New Reactor.NEUTRO_node_1970572618 phases=1 bus1=node_1970572618.4 bus2=node_1970572618.0 R=0.5 X=0
New Reactor.NEUTRO_node_1973213386 phases=1 bus1=node_1973213386.4 bus2=node_1973213386.0 R=0.5 X=0
New Reactor.NEUTRO_node_1978842775 phases=1 bus1=node_1978842775.4 bus2=node_1978842775.0 R=0.5 X=0
New Reactor.NEUTRO_node_1982204887 phases=1 bus1=node_1982204887.4 bus2=node_1982204887.0 R=0.5 X=0
New Reactor.NEUTRO_node_1984476623 phases=1 bus1=node_1984476623.4 bus2=node_1984476623.0 R=0.5 X=0
New Reactor.NEUTRO_node_1985090490 phases=1 bus1=node_1985090490.4 bus2=node_1985090490.0 R=0.5 X=0
New Reactor.NEUTRO_node_1986185468 phases=1 bus1=node_1986185468.4 bus2=node_1986185468.0 R=0.5 X=0
New Reactor.NEUTRO_node_2002459684 phases=1 bus1=node_2002459684.4 bus2=node_2002459684.0 R=0.5 X=0
New Reactor.NEUTRO_node_2002532712 phases=1 bus1=node_2002532712.4 bus2=node_2002532712.0 R=0.5 X=0
New Reactor.NEUTRO_node_2011082053 phases=1 bus1=node_2011082053.4 bus2=node_2011082053.0 R=0.5 X=0
New Reactor.NEUTRO_node_2016123513 phases=1 bus1=node_2016123513.4 bus2=node_2016123513.0 R=0.5 X=0
New Reactor.NEUTRO_node_2016797845 phases=1 bus1=node_2016797845.4 bus2=node_2016797845.0 R=0.5 X=0
New Reactor.NEUTRO_node_2019760292 phases=1 bus1=node_2019760292.4 bus2=node_2019760292.0 R=0.5 X=0
New Reactor.NEUTRO_node_2029151594 phases=1 bus1=node_2029151594.4 bus2=node_2029151594.0 R=0.5 X=0
New Reactor.NEUTRO_node_2040019454 phases=1 bus1=node_2040019454.4 bus2=node_2040019454.0 R=0.5 X=0
New Reactor.NEUTRO_node_2041706967 phases=1 bus1=node_2041706967.4 bus2=node_2041706967.0 R=0.5 X=0
New Reactor.NEUTRO_node_2042797541 phases=1 bus1=node_2042797541.4 bus2=node_2042797541.0 R=0.5 X=0
New Reactor.NEUTRO_node_2080464492 phases=1 bus1=node_2080464492.4 bus2=node_2080464492.0 R=0.5 X=0
New Reactor.NEUTRO_node_2081624003 phases=1 bus1=node_2081624003.4 bus2=node_2081624003.0 R=0.5 X=0
New Reactor.NEUTRO_node_2081624030 phases=1 bus1=node_2081624030.4 bus2=node_2081624030.0 R=0.5 X=0
New Reactor.NEUTRO_node_2082663021 phases=1 bus1=node_2082663021.4 bus2=node_2082663021.0 R=0.5 X=0
New Reactor.NEUTRO_node_2087300638 phases=1 bus1=node_2087300638.4 bus2=node_2087300638.0 R=0.5 X=0
New Reactor.NEUTRO_node_2102316806 phases=1 bus1=node_2102316806.4 bus2=node_2102316806.0 R=0.5 X=0
New Reactor.NEUTRO_node_2134448857 phases=1 bus1=node_2134448857.4 bus2=node_2134448857.0 R=0.5 X=0
New Reactor.NEUTRO_node_2166078279 phases=1 bus1=node_2166078279.4 bus2=node_2166078279.0 R=0.5 X=0
New Reactor.NEUTRO_node_2168620812 phases=1 bus1=node_2168620812.4 bus2=node_2168620812.0 R=0.5 X=0
New Reactor.NEUTRO_node_2177654886 phases=1 bus1=node_2177654886.4 bus2=node_2177654886.0 R=0.5 X=0
New Reactor.NEUTRO_node_2215794255 phases=1 bus1=node_2215794255.4 bus2=node_2215794255.0 R=0.5 X=0
New Reactor.NEUTRO_node_2216408379 phases=1 bus1=node_2216408379.4 bus2=node_2216408379.0 R=0.5 X=0
New Reactor.NEUTRO_node_2217138267 phases=1 bus1=node_2217138267.4 bus2=node_2217138267.0 R=0.5 X=0
New Reactor.NEUTRO_node_2217696578 phases=1 bus1=node_2217696578.4 bus2=node_2217696578.0 R=0.5 X=0
New Reactor.NEUTRO_node_2224163481 phases=1 bus1=node_2224163481.4 bus2=node_2224163481.0 R=0.5 X=0
New Reactor.NEUTRO_node_2231527687 phases=1 bus1=node_2231527687.4 bus2=node_2231527687.0 R=0.5 X=0
New Reactor.NEUTRO_node_2234391631 phases=1 bus1=node_2234391631.4 bus2=node_2234391631.0 R=0.5 X=0
New Reactor.NEUTRO_node_2234790840 phases=1 bus1=node_2234790840.4 bus2=node_2234790840.0 R=0.5 X=0
New Reactor.NEUTRO_node_2238032824 phases=1 bus1=node_2238032824.4 bus2=node_2238032824.0 R=0.5 X=0
New Reactor.NEUTRO_node_2238539530 phases=1 bus1=node_2238539530.4 bus2=node_2238539530.0 R=0.5 X=0
New Reactor.NEUTRO_node_2243945869 phases=1 bus1=node_2243945869.4 bus2=node_2243945869.0 R=0.5 X=0
New Reactor.NEUTRO_node_2267923424 phases=1 bus1=node_2267923424.4 bus2=node_2267923424.0 R=0.5 X=0
New Reactor.NEUTRO_node_2267923652 phases=1 bus1=node_2267923652.4 bus2=node_2267923652.0 R=0.5 X=0
New Reactor.NEUTRO_node_2270096262 phases=1 bus1=node_2270096262.4 bus2=node_2270096262.0 R=0.5 X=0
New Reactor.NEUTRO_node_2281724324 phases=1 bus1=node_2281724324.4 bus2=node_2281724324.0 R=0.5 X=0
New Reactor.NEUTRO_node_2281986261 phases=1 bus1=node_2281986261.4 bus2=node_2281986261.0 R=0.5 X=0
New Reactor.NEUTRO_node_2282084984 phases=1 bus1=node_2282084984.4 bus2=node_2282084984.0 R=0.5 X=0
New Reactor.NEUTRO_node_2282647894 phases=1 bus1=node_2282647894.4 bus2=node_2282647894.0 R=0.5 X=0
New Reactor.NEUTRO_node_2283124297 phases=1 bus1=node_2283124297.4 bus2=node_2283124297.0 R=0.5 X=0
New Reactor.NEUTRO_node_2283274524 phases=1 bus1=node_2283274524.4 bus2=node_2283274524.0 R=0.5 X=0
New Reactor.NEUTRO_node_2288809386 phases=1 bus1=node_2288809386.4 bus2=node_2288809386.0 R=0.5 X=0
New Reactor.NEUTRO_node_2322392793 phases=1 bus1=node_2322392793.4 bus2=node_2322392793.0 R=0.5 X=0
New Reactor.NEUTRO_node_2322435720 phases=1 bus1=node_2322435720.4 bus2=node_2322435720.0 R=0.5 X=0
...
